56
BIK
 O    1.885000    4.055500    2.628000
 O    5.655000   12.166500    2.628000
 O    5.655000   12.166500    0.000000
 O    5.655000   12.166500    5.256000
 O    1.885000    4.055500    0.000000
 O    1.885000    4.055500    5.256000
 O    5.655000    4.055500    0.000000
 O    5.655000    4.055500    5.256000
 O    1.885000   12.166500    0.000000
 O    1.885000   12.166500    5.256000
 O    1.885000   12.166500    2.628000
 O    5.655000    4.055500    2.628000
 O    2.455024    1.854175    1.314000
 O    5.084976   14.367826    3.942000
 O    5.084976    1.854175    1.314000
 O    2.455024   14.367826    3.942000
 O    6.225024    9.965175    1.314000
 O    1.314976    6.256825    3.942000
 O    1.314976    9.965175    1.314000
 O    6.225024    6.256825    3.942000
 O    0.000000    2.780451    1.314000
 O    7.540000    2.780451    1.314000
 O    0.000000   13.441549    3.942000
 O    7.540000   13.441549    3.942000
 O    3.770000   10.891451    1.314000
 O    3.770000    5.330549    3.942000
 O    3.770000    0.000000    0.000000
 O    3.770000    0.000000    5.256000
 O    3.770000   16.222000    0.000000
 O    3.770000   16.222000    5.256000
 O    3.770000    0.000000    2.628000
 O    3.770000   16.222000    2.628000
 O    0.000000    8.111000    0.000000
 O    0.000000    8.111000    5.256000
 O    7.540000    8.111000    0.000000
 O    7.540000    8.111000    5.256000
 O    0.000000    8.111000    2.628000
 O    7.540000    8.111000    2.628000
Si    1.557010    3.189245    1.314000
Si    5.982990   13.032755    3.942000
Si    5.982990    3.189245    1.314000
Si    1.557010   13.032755    3.942000
Si    5.327010   11.300245    1.314000
Si    2.212990    4.921755    3.942000
Si    2.212990   11.300245    1.314000
Si    5.327010    4.921755    3.942000
Si    3.770000    0.926276    1.314000
Si    3.770000   15.295724    3.942000
Si    0.000000    9.037276    1.314000
Si    7.540000    9.037276    1.314000
Si    0.000000    7.184724    3.942000
Si    7.540000    7.184724    3.942000
 O   -1.314976    9.965175    1.314000
 O    8.854976    9.965175    1.314000
 O   -1.314976    6.256825    3.942000
 O    8.854976    6.256825    3.942000
