172
POS
Si    3.729762    0.225193    3.110120
Si   15.036337   18.540907    8.583820
Si   15.036337   18.540907    3.110120
Si    3.729762    0.225193    8.583820
Si    9.157857   13.112812    8.957090
Si    9.608243    5.653288    2.736850
Si    9.608243    5.653288    8.957090
Si    9.157857   13.112812    2.736850
Si    5.653288    9.608243    2.736850
Si   13.112812    9.157857    8.957090
Si   13.112812    9.157857    2.736850
Si    5.653288    9.608243    8.957090
Si    0.225193    3.729762    8.583820
Si   18.540907   15.036337    3.110120
Si   18.540907   15.036337    8.583820
Si    0.225193    3.729762    3.110120
Si    4.893824    2.697064    4.317052
Si   13.872276   16.069036    7.376888
Si   13.872276   16.069036    4.317052
Si    4.893824    2.697064    7.376888
Si    6.685986   14.276874   10.164022
Si   12.080114    4.489226    1.529918
Si   12.080114    4.489226   10.164022
Si    6.685986   14.276874    1.529918
Si    4.489226   12.080114    1.529918
Si   14.276874    6.685986   10.164022
Si   14.276874    6.685986    1.529918
Si    4.489226   12.080114   10.164022
Si    2.697064    4.893824    7.376888
Si   16.069036   13.872276    4.317052
Si   16.069036   13.872276    7.376888
Si    2.697064    4.893824    4.317052
Si    7.033347    4.848597    4.311907
Si   11.732753   13.917502    7.382034
Si   11.732753   13.917502    4.311907
Si    7.033347    4.848597    7.382034
Si    4.534453   16.416397   10.158877
Si   14.231647    2.349703    1.535063
Si   14.231647    2.349703   10.158877
Si    4.534453   16.416397    1.535063
Si    2.349703   14.231647    1.535063
Si   16.416397    4.534453   10.158877
Si   16.416397    4.534453    1.535063
Si    2.349703   14.231647   10.158877
Si    4.848597    7.033347    7.382034
Si   13.917502   11.732753    4.311907
Si   13.917502   11.732753    7.382034
Si    4.848597    7.033347    4.311907
Si    1.076424    1.076424    1.606864
Si   17.689676   17.689676   10.087076
Si   17.689676   17.689676    1.606864
Si    1.076424    1.076424   10.087076
Si    8.306626   10.459473    7.453834
Si   10.459473    8.306626    4.240106
Si   10.459473    8.306626    7.453834
Si    8.306626   10.459473    4.240106
Si    2.195258    0.073751    5.846970
Si   16.570842   18.692349    5.846970
Si    0.073751    2.195258    5.846970
Si   18.692349   16.570842    5.846970
 O    9.383050    9.383050    7.981231
 O    9.383050    9.383050    3.712709
 O    8.308503   10.457597    5.846970
 O   10.457597    8.308503    5.846970
 O    2.554254    0.697911    2.119059
 O   16.211846   18.068189    9.574881
 O   16.211846   18.068189    2.119059
 O    2.554254    0.697911    9.574881
 O    8.685139   11.937304    7.966029
 O   10.080961    6.828796    3.727911
 O   10.080961    6.828796    7.966029
 O    8.685139   11.937304    3.727911
 O    6.828796   10.080961    3.727911
 O   11.937304    8.685139    7.966029
 O   11.937304    8.685139    3.727911
 O    6.828796   10.080961    7.966029
 O    0.697911    2.554254    9.574881
 O   18.068189   16.211846    2.119059
 O   18.068189   16.211846    9.574881
 O    0.697911    2.554254    2.119059
 O    4.486787   17.718576    2.479934
 O   14.279313    1.047523    9.214006
 O   14.279313    1.047523    2.479934
 O    4.486787   17.718576    9.214006
 O   10.430573   13.869837    8.326904
 O    8.335526    4.896263    3.367036
 O    8.335526    4.896263    8.326904
 O   10.430573   13.869837    3.367036
 O    4.896263    8.335526    3.367036
 O   13.869837   10.430573    8.326904
 O   13.869837   10.430573    3.367036
 O    4.896263    8.335526    8.326904
 O   17.718576    4.486787    9.214006
 O    1.047523   14.279313    2.479934
 O    1.047523   14.279313    9.214006
 O   17.718576    4.486787    2.479934
 O    3.093404   18.596830    4.534559
 O   15.672696    0.169270    7.159381
 O   15.672696    0.169270    4.534559
 O    3.093404   18.596830    7.159381
 O    9.552320   12.476454   10.381529
 O    9.213780    6.289646    1.312411
 O    9.213780    6.289646   10.381529
 O    9.552320   12.476454    1.312411
 O    6.289646    9.213780    1.312411
 O   12.476454    9.552320   10.381529
 O   12.476454    9.552320    1.312411
 O    6.289646    9.213780   10.381529
 O   18.596830    3.093404    7.159381
 O    0.169270   15.672696    4.534559
 O    0.169270   15.672696    7.159381
 O   18.596830    3.093404    4.534559
 O    0.997043   17.769058    5.846970
 O   17.769057    0.997042    5.846970
 O    1.551581    1.551581    5.846970
 O   17.214519   17.214519    5.846970
 O    4.786481    1.418905    3.342713
 O   13.979619   17.347195    8.351228
 O   13.979619   17.347195    3.342713
 O    4.786481    1.418905    8.351228
 O    7.964145   14.169531    9.189683
 O   10.801955    4.596569    2.504257
 O   10.801955    4.596569    9.189683
 O    7.964145   14.169531    2.504257
 O    4.596569   10.801955    2.504257
 O   14.169531    7.964145    9.189683
 O   14.169531    7.964145    2.504257
 O    4.596569   10.801955    9.189683
 O    1.418905    4.786481    8.351228
 O   17.347195   13.979619    3.342713
 O   17.347195   13.979619    8.351228
 O    1.418905    4.786481    3.342713
 O    3.744400    3.744400    3.903320
 O   15.021700   15.021700    7.790620
 O   15.021700   15.021700    3.903320
 O    3.744400    3.744400    7.790620
 O    5.638650   13.127450    9.750290
 O   13.127450    5.638650    1.943650
 O   13.127450    5.638650    9.750290
 O    5.638650   13.127450    1.943650
 O    4.686083    2.240297    5.846970
 O   14.080017   16.525803    5.846970
 O    2.240297    4.686083    5.846970
 O   16.525803   14.080017    5.846970
 O    6.329993    3.407549    4.158950
 O   12.436107   15.358551    7.534990
 O   12.436107   15.358551    4.158950
 O    6.329993    3.407549    7.534990
 O    5.975501   15.713043   10.005920
 O   12.790599    3.053057    1.688020
 O   12.790599    3.053057   10.005920
 O    5.975501   15.713043    1.688020
 O    3.053057   12.790599    1.688020
 O   15.713043    5.975501   10.005920
 O   15.713043    5.975501    1.688020
 O    3.053057   12.790599   10.005920
 O    3.407549    6.329993    7.534990
 O   15.358551   12.436107    4.158950
 O   15.358551   12.436107    7.534990
 O    3.407549    6.329993    4.158950
 O    6.001399    6.001399    3.867537
 O   12.764701   12.764701    7.826403
 O   12.764701   12.764701    3.867537
 O    6.001399    6.001399    7.826403
 O    3.381651   15.384449    9.714507
 O   15.384449    3.381651    1.979433
 O   15.384449    3.381651    9.714507
 O    3.381651   15.384449    1.979433
 O    7.464404    5.072852    5.846970
 O   11.301696   13.693248    5.846970
 O    5.072852    7.464404    5.846970
 O   13.693248   11.301696    5.846970
